omf/scratch/gosedPrototypes/OlinBarre.glm
clock {
	timezone PST+8PDT;
	starttime '2000-01-01 00:00:00';
	stoptime '2000-01-01 00:00:00';
};

#set minimum_timestep=60;
#set profiler=1;
#set relax_naming_rules=1;
module generators;
module tape;
module residential {
	implicit_enduses NONE;
};

module powerflow {
	solver_method NR;
	NR_iteration_limit 50;
};

object node {
	phases ABCN;
	name BURLINGTON;
	bustype SWING;
	longitude 249.241975273;
	nominal_voltage 7200.0;
	latitude 1186.14884667;
};

object overhead_line {
	phases ACB;
	from BURLINGTON;
	name 21003;
	longitude 248.438630691;
	to node2101121003;
	length 20.6237;
	latitude 1187.62190279;
	configuration 70559-LINECONFIG;
};

object overhead_line {
	phases ACB;
	from node2101121003;
	name 21011;
	longitude 247.95586711;
	to node6829821011;
	length 13.0755;
	latitude 1188.56931748;
	configuration 70559-LINECONFIG;
};

object overhead_line {
	phases ACB;
	from node6829821011;
	name 68298;
	longitude 249.295834578;
	to node6829968298;
	length 19.0913;
	latitude 1187.75506724;
	configuration 70559-LINECONFIG;
};

object overhead_line {
	phases ACB;
	from node6829968298;
	name 68299;
	to nodeR118268299;
	longitude 251.005334611;
	length 24.3563;
	latitude 1186.71625905;
	configuration 70559-LINECONFIG;
};

object fuse {
	phases ACB;
	from nodeR118268299;
	name R1182;
	current_limit 9999.0 A;
	longitude 251.005334611;
	to node20944R1182;
	latitude 1186.71625905;
};

object overhead_line {
	phases ACB;
	from node20944R1182;
	name 20944;
	longitude 256.779314944;
	to node2083720944;
	length 82.2659;
	latitude 1183.20754522;
	configuration 70559-LINECONFIG;
};

object overhead_line {
	phases ACB;
	from node2083720944;
	name 20837;
	longitude 258.004151788;
	to node2088120837;
	length 87.5465;
	latitude 1176.21796983;
	configuration 70559-LINECONFIG;
};

object overhead_line {
	phases ACB;
	from node2088120837;
	name 20881;
	longitude 259.830364604;
	to node2044520881;
	length 281.156;
	latitude 1153.9880826;
	configuration 70559-LINECONFIG;
};

object overhead_line {
	phases ACB;
	from node2044520881;
	name 20445;
	longitude 262.881404192;
	to node2054920445;
	length 465.786;
	latitude 1116.84969696;
	configuration 70559-LINECONFIG;
};

object overhead_line {
	phases ACB;
	from node2054920445;
	name 20549;
	longitude 250.480527622;
	to node2036920549;
	length 212.612;
	latitude 1104.66049823;
	configuration 70559-LINECONFIG;
};

object overhead_line {
	phases ACB;
	from node2036920549;
	name 20369;
	longitude 227.795214826;
	to node2050620369;
	length 302.735;
	latitude 1094.36911029;
	configuration 70559-LINECONFIG;
};

object overhead_line {
	phases ACB;
	from node2050620369;
	name 20506;
	to node2049920506;
	longitude 214.715738236;
	length 178.526;
	latitude 1087.70338272;
	configuration 70559-LINECONFIG;
};

object overhead_line {
	phases C;
	from node2049920506;
	name 20499;
	longitude 216.79145029;
	to nodeF757220499;
	length 25.1837;
	latitude 1087.58799361;
	configuration 19237-LINECONFIG;
};

object fuse {
	phases C;
	from nodeF757220499;
	name F7572;
	current_limit 9999.0 A;
	longitude 216.79145029;
	to node20500F7572;
	latitude 1087.58799361;
};

object overhead_line {
	phases C;
	from node20500F7572;
	name 20500;
	longitude 233.837564539;
	to node2050120500;
	length 206.813;
	latitude 1086.64013895;
	configuration 19237-LINECONFIG;
};

object overhead_line {
	phases C;
	from node2050120500;
	name 20501;
	longitude 241.159139479;
	to node2047920501;
	length 93.3471;
	latitude 1088.99954558;
	configuration 19237-LINECONFIG;
};

object overhead_line {
	phases C;
	from node2047920501;
	name 20479;
	longitude 266.364250377;
	to node2047820479;
	length 318.945;
	latitude 1081.52640601;
	configuration 19237-LINECONFIG;
};

object overhead_line {
	phases C;
	from node2047820479;
	name 20478;
	longitude 283.236421603;
	to nodeT6246302843020478;
	length 209.243;
	latitude 1085.16172296;
	configuration 19237-LINECONFIG;
};

object overhead_line {
	phases ACB;
	from node2049920506;
	name 20507;
	longitude 210.587971111;
	to node2053120507;
	length 168.466;
	latitude 1100.73592982;
	configuration 70559-LINECONFIG;
};

object overhead_line {
	phases ACB;
	from node2053120507;
	name 20531;
	longitude 201.661722505;
	to node2074120531;
	length 427.282;
	latitude 1134.22352728;
	configuration 70559-LINECONFIG;
};

object overhead_line {
	phases ACB;
	from node2074120531;
	name 20741;
	longitude 196.011872021;
	to node2066520741;
	length 247.043;
	latitude 1153.45330363;
	configuration 70559-LINECONFIG;
};

object overhead_line {
	phases C;
	from node2066520741;
	name 20665;
	longitude 202.09512135;
	to nodeT6246303284920665;
	length 82.4549;
	latitude 1150.45590725;
	configuration 19237-LINECONFIG;
};

object overhead_line {
	phases ACB;
	from node2066520741;
	name 20874;
	longitude 190.795415338;
	to node2078120874;
	length 232.862;
	latitude 1171.60967535;
	configuration 70559-LINECONFIG;
};

object overhead_line {
	phases A;
	from node2078120874;
	name 20781;
	longitude 188.981612981;
	to nodeF757920781;
	length 25.0002;
	latitude 1170.6433234;
	configuration 18790-LINECONFIG;
};

object fuse {
	phases A;
	from nodeF757920781;
	name F7579;
	current_limit 9999.0 A;
	longitude 188.981612981;
	to node20886F7579;
	latitude 1170.6433234;
};

object overhead_line {
	phases A;
	from node20886F7579;
	name 20886;
	longitude 159.243936108;
	to node2086420886;
	length 409.942;
	latitude 1154.78997158;
	configuration 18790-LINECONFIG;
};

object overhead_line {
	phases A;
	from node2086420886;
	name 20864;
	longitude 144.518180812;
	to node2075820864;
	length 204.616;
	latitude 1146.66866657;
	configuration 18790-LINECONFIG;
};

object overhead_line {
	phases A;
	from node2075820864;
	name 20758;
	longitude 128.027811532;
	to node2075020758;
	length 226.662;
	latitude 1137.99048576;
	configuration 18790-LINECONFIG;
};

object overhead_line {
	phases A;
	from node2075020758;
	name 20750;
	to node2075120750;
	longitude 125.896849477;
	length 29.3057;
	latitude 1136.86642012;
	configuration 18790-LINECONFIG;
};

object overhead_line {
	phases A;
	from node2075120750;
	name 20751;
	longitude 123.523412231;
	to node2046020751;
	length 94.3617;
	latitude 1144.14723958;
	configuration 18790-LINECONFIG;
};

object overhead_line {
	phases A;
	from node2046020751;
	name 20460;
	longitude 111.805761248;
	to node2077020460;
	length 162.808;
	latitude 1150.60780134;
	configuration 18790-LINECONFIG;
};

object overhead_line {
	phases A;
	from node2077020460;
	name 20770;
	longitude 96.4298547795;
	to nodeT6247421158320770;
	length 218.5;
	latitude 1141.35237359;
	configuration 18790-LINECONFIG;
};

object overhead_line {
	phases A;
	from node2046020751;
	name 20611;
	longitude 117.7806319;
	to node2055320611;
	length 269.024;
	latitude 1123.09471938;
	configuration 18790-LINECONFIG;
};

object overhead_line {
	phases A;
	from node2055320611;
	name 20553;
	to nodeT6247420946420553;
	longitude 112.863457389;
	length 229.972;
	latitude 1105.10033343;
	configuration 18790-LINECONFIG;
};

object overhead_line {
	phases A;
	from node2075820864;
	name 20865;
	longitude 140.988937728;
	to node2066020865;
	length 57.4479;
	latitude 1149.7774816;
	configuration 18790-LINECONFIG;
};

object overhead_line {
	phases A;
	from node2066020865;
	name 20660;
	longitude 121.634930411;
	to nodeT6247421235820660;
	length 236.478;
	latitude 1152.28878231;
	configuration 18790-LINECONFIG;
};

object overhead_line {
	phases A;
	from node2086420886;
	name 20599;
	longitude 175.527902671;
	to nodeT6247421005620599;
	length 467.07;
	latitude 1120.49225257;
	configuration 18790-LINECONFIG;
};

object overhead_line {
	phases A;
	from node2086420886;
	name 20887;
	longitude 141.355280754;
	to node2040020887;
	length 248.917;
	latitude 1164.71369871;
	configuration 18790-LINECONFIG;
};

object overhead_line {
	phases A;
	from node2040020887;
	name 20400;
	to nodeT6247421334720400;
	longitude 123.827788594;
	length 216.307;
	latitude 1168.06548003;
	configuration 18790-LINECONFIG;
};

object overhead_line {
	phases A;
	from node2078120874;
	name 20788;
	longitude 179.454416691;
	to node2103920788;
	length 267.903;
	latitude 1190.24203128;
	configuration 70559-LINECONFIG;
};

object overhead_line {
	phases A;
	from node2103920788;
	name 21039;
	longitude 177.026540678;
	to nodeF740921039;
	length 29.7028;
	latitude 1190.57952098;
	configuration 18790-LINECONFIG;
};

object fuse {
	phases A;
	from nodeF740921039;
	name F7409;
	current_limit 9999.0 A;
	longitude 177.026540678;
	to node21038F7409;
	latitude 1190.57952098;
};

object overhead_line {
	phases A;
	from node21038F7409;
	name 21038;
	longitude 169.109248296;
	to nodeT6247421409921038;
	length 96.8605;
	latitude 1191.67998172;
	configuration 18790-LINECONFIG;
};

object overhead_line {
	phases A;
	from node2053120507;
	name 20509;
	longitude 196.027356127;
	to node2042320509;
	length 233.407;
	latitude 1088.35146415;
	configuration 18790-LINECONFIG;
};

object overhead_line {
	phases A;
	from node2042320509;
	name 20423;
	longitude 175.925223998;
	to node2042420423;
	length 278.056;
	latitude 1077.47588225;
	configuration 18790-LINECONFIG;
};

object overhead_line {
	phases A;
	from node2042420423;
	name 20424;
	longitude 155.807582559;
	to node2035020424;
	length 257.596;
	latitude 1084.24021241;
	configuration 18790-LINECONFIG;
};

object overhead_line {
	phases A;
	from node2035020424;
	name 20350;
	to node2034120350;
	longitude 163.010494701;
	length 205.673;
	latitude 1069.15210121;
	configuration 18790-LINECONFIG;
};

object overhead_line {
	phases A;
	from node2034120350;
	name 20341;
	longitude 156.359659311;
	to node5826220341;
	length 83.3179;
	latitude 1067.43060032;
	configuration 18790-LINECONFIG;
};

object underground_line {
	phases A;
	from node5826220341;
	name 58262;
	longitude 154.37379843;
	to nodeF742758262;
	length 25;
	latitude 1066.8790349;
	configuration 58261-LINECONFIG;
};

object fuse {
	phases A;
	from nodeF742758262;
	name F7427;
	current_limit 9999.0 A;
	longitude 154.37379843;
	to node58261F7427;
	latitude 1066.8790349;
};

object line_configuration {
	name 58261-LINECONFIG;
	spacing 58261-LINESPACING;
	conductor_A 58261-LINECONFIGunderground_line_conductor8003;
};

object line_spacing {
	distance_AN 0.0;
	name 58261-LINESPACING;
	distance_CN 0.0;
	distance_BC 0.0;
	distance_AB 0.0;
	distance_AC 0.0;
	distance_BN 0.0;
};

object underground_line_conductor {
	conductor_gmr 0.01177;
	conductor_resistance 1.1088;
	shield_resistance 0.000000;
	neutral_gmr 0.0317574;
	neutral_strands 19;
	conductor_diameter 0.373000;
	name 58261-LINECONFIGunderground_line_conductor8003;
	insulation_relative_permitivitty 2.4;
	outer_diameter 0.983000;
	neutral_resistance 1.11408;
	neutral_diameter 0.128000;
	shield_gmr 0.000000;
};

object underground_line {
	phases A;
	from node58261F7427;
	name 58261;
	longitude 146.75745101;
	to nodeT6247420722358261;
	length 100.748;
	latitude 1067.33944905;
	configuration 58261-LINECONFIG;
};

object overhead_line {
	phases ACB;
	from node2049920506;
	name 20367;
	longitude 217.769418141;
	to node2028620367;
	length 144.103;
	latitude 1076.42072273;
	configuration 70559-LINECONFIG;
};

object overhead_line {
	phases ACB;
	from node2028620367;
	name 20286;
	to node2028720286;
	longitude 223.420160483;
	length 266.66;
	latitude 1055.54235659;
	configuration 70559-LINECONFIG;
};

object overhead_line {
	phases A;
	from node2028720286;
	name 20287;
	longitude 221.147337184;
	to nodeF654320287;
	length 27.5374;
	latitude 1055.59038218;
	configuration 18790-LINECONFIG;
};

object fuse {
	phases A;
	from nodeF654320287;
	name F6543;
	current_limit 9999.0 A;
	longitude 221.147337184;
	to node20288F6543;
	latitude 1055.59038218;
};

object overhead_line {
	phases A;
	from node20288F6543;
	name 20288;
	longitude 193.215320034;
	to nodeT6246302695520288;
	length 338.423;
	latitude 1056.18031175;
	configuration 18790-LINECONFIG;
};

object overhead_line {
	phases ACB;
	from node2028720286;
	name 20208;
	longitude 200.557563958;
	to node2017120208;
	length 393.554;
	latitude 1032.88990513;
	configuration 15051-LINECONFIG;
};

object overhead_line {
	phases ACB;
	from node2017120208;
	name 20171;
	to node2017220171;
	longitude 188.654169179;
	length 208.153;
	latitude 1020.72823228;
	configuration 15051-LINECONFIG;
};

object overhead_line {
	phases A;
	from node2017220171;
	name 20172;
	longitude 181.219015559;
	to nodeT6247420502220172;
	length 197.817;
	latitude 1034.99616978;
	configuration 18790-LINECONFIG;
};

object underground_line {
	phases ACB;
	from node2017220171;
	name 58198;
	longitude 189.689261444;
	to nodeF750858198;
	length 24.9999;
	latitude 1018.97611521;
	configuration 58136-LINECONFIG;
};

object fuse {
	phases ACB;
	from nodeF750858198;
	name F7508;
	current_limit 9999.0 A;
	longitude 189.689261444;
	to node58181F7508;
	latitude 1018.97611521;
};

object underground_line {
	phases ACB;
	from node58181F7508;
	name 58181;
	longitude 180.553440743;
	to node5813658181;
	length 179.161;
	latitude 1010.63235852;
	configuration 58136-LINECONFIG;
};

object line_configuration {
	name 58136-LINECONFIG;
	spacing 57731-LINESPACING;
	conductor_A 58261-LINECONFIGunderground_line_conductor8003;
	conductor_C 58261-LINECONFIGunderground_line_conductor8003;
	conductor_B 58261-LINECONFIGunderground_line_conductor8003;
};

object underground_line {
	phases ACB;
	from node5813658181;
	name 58136;
	to node5813158136;
	longitude 157.577346154;
	length 387.426;
	latitude 993.245529145;
	configuration 58136-LINECONFIG;
};

object underground_line {
	phases ACB;
	from node5813158136;
	name 58131;
	longitude 134.885014363;
	to node5813458131;
	length 276.423;
	latitude 992.951867248;
	configuration 58136-LINECONFIG;
};

object underground_line {
	phases ACB;
	from node5813458131;
	name 58134;
	longitude 133.187501544;
	to node5813558134;
	length 20.6168;
	latitude 993.073382516;
	configuration 58136-LINECONFIG;
};

object underground_line {
	phases ACB;
	from node5813558134;
	name 58135;
	longitude 125.767852191;
	to node5813758135;
	length 90.0433;
	latitude 993.518958265;
	configuration 58136-LINECONFIG;
};

object underground_line {
	phases C;
	from node5813758135;
	name 58137;
	longitude 125.623295211;
	to node5814358137;
	length 24.9998;
	latitude 995.539218861;
	configuration 57821-LINECONFIG;
};

object underground_line {
	phases C;
	from node5814358137;
	name 58143;
	longitude 125.834933197;
	to node5817258143;
	length 143.116;
	latitude 1007.10841575;
	configuration 57821-LINECONFIG;
};

object underground_line {
	phases C;
	from node5817258143;
	name 58172;
	longitude 128.507622391;
	to nodeT6247420435458172;
	length 204.811;
	latitude 1023.17880995;
	configuration 57821-LINECONFIG;
};

object underground_line {
	phases ACB;
	from node5813758135;
	name 58138;
	longitude 123.70798704;
	to node5813958138;
	length 25.0002;
	latitude 993.645492195;
	configuration 58136-LINECONFIG;
};

object underground_line {
	phases ACB;
	from node5813958138;
	name 58139;
	longitude 117.527802045;
	to node5814058139;
	length 75.008;
	latitude 994.025252116;
	configuration 58136-LINECONFIG;
};

object underground_line {
	phases ACB;
	from node5814058139;
	name 58140;
	longitude 101.027143616;
	to node5814158140;
	length 200.306;
	latitude 995.088495887;
	configuration 58136-LINECONFIG;
};

object underground_line {
	phases ACB;
	from node5814158140;
	name 58141;
	longitude 92.7148578188;
	to node5814458141;
	length 100.914;
	latitude 995.635349185;
	configuration 58136-LINECONFIG;
};

object underground_line {
	phases A;
	from node5814458141;
	name 58144;
	longitude 92.7819438607;
	to node5817758144;
	length 167.617;
	latitude 1009.18430158;
	configuration 58261-LINECONFIG;
};

object underground_line {
	phases A;
	from node5817758144;
	name 58177;
	longitude 93.8861175233;
	to node5792158177;
	length 212.671;
	latitude 1026.37869225;
	configuration 58261-LINECONFIG;
};

object underground_line {
	phases A;
	from node5792158177;
	name 57921;
	to node5823357921;
	longitude 94.7322915696;
	length 270.722;
	latitude 1048.24129941;
	configuration 58261-LINECONFIG;
};

object underground_line {
	phases A;
	from node5823357921;
	name 58233;
	longitude 78.5102261702;
	to node5824058233;
	length 199.88;
	latitude 1050.61088173;
	configuration 58261-LINECONFIG;
};

object underground_line {
	phases A;
	from node5824058233;
	name 58240;
	longitude 82.5606080258;
	to node5826058240;
	length 190.022;
	latitude 1065.10155768;
	configuration 58261-LINECONFIG;
};

object underground_line {
	phases A;
	from node5826058240;
	name 58260;
	longitude 107.610892957;
	to nodeT6247420743758260;
	length 319.945;
	latitude 1068.17997907;
	configuration 58261-LINECONFIG;
};

object underground_line {
	phases A;
	from node5824058233;
	name 58241;
	longitude 61.9837289884;
	to node5824358241;
	length 200.19;
	latitude 1050.68173104;
	configuration 58261-LINECONFIG;
};

object underground_line {
	phases A;
	from node5824358241;
	name 58243;
	longitude 45.560475982;
	to node5824258243;
	length 198.968;
	latitude 1050.90452386;
	configuration 58261-LINECONFIG;
};

object underground_line {
	phases A;
	from node5824258243;
	name 58242;
	longitude 52.5209078888;
	to nodeT6247420783058242;
	length 297.293;
	latitude 1067.89640885;
	configuration 58261-LINECONFIG;
};

object underground_line {
	phases A;
	from node5824258243;
	name 57997;
	longitude 24.529579491;
	to node5791157997;
	length 269.856;
	latitude 1053.69937503;
	configuration 58261-LINECONFIG;
};

object underground_line {
	phases A;
	from node5791157997;
	name 57911;
	longitude 25.6492423036;
	to node5826357911;
	length 183.026;
	latitude 1068.04833753;
	configuration 58261-LINECONFIG;
};

object underground_line {
	phases A;
	from node5826357911;
	name 58263;
	longitude 29.5654571031;
	to nodeT6247420890458263;
	length 186.848;
	latitude 1080.58462809;
	configuration 58261-LINECONFIG;
};

object underground_line {
	phases ACB;
	from node5814458141;
	name 58145;
	longitude 84.4955169763;
	to node5814658145;
	length 99.7906;
	latitude 996.182167891;
	configuration 58136-LINECONFIG;
};

object underground_line {
	phases ACB;
	from node5814658145;
	name 58146;
	to node5815058146;
	longitude 68.0463899407;
	length 199.716;
	latitude 997.285931576;
	configuration 58136-LINECONFIG;
};

object underground_line {
	phases ACB;
	from node5815058146;
	name 58150;
	longitude 55.1213765393;
	to nodeT6247420376958150;
	length 239.853;
	latitude 1008.56656437;
	configuration 58136-LINECONFIG;
};

object underground_line {
	phases CB;
	from nodeT6247420376958150;
	name 58176;
	longitude 54.0120683824;
	to node5797758176;
	length 170.776;
	latitude 1022.18643526;
	configuration 57981-LINECONFIG;
};

object underground_line {
	phases CB;
	from node5797758176;
	name 57977;
	to node5798157977;
	longitude 37.6093684851;
	length 199.991;
	latitude 1024.02938224;
	configuration 57981-LINECONFIG;
};

object line_configuration {
	name 57981-LINECONFIG;
	spacing 57981-LINESPACING;
	conductor_C 58261-LINECONFIGunderground_line_conductor8003;
	conductor_B 58261-LINECONFIGunderground_line_conductor8003;
};

object line_spacing {
	distance_AN 0.0;
	name 57981-LINESPACING;
	distance_CN 0.0;
	distance_BC 4.472136;
	distance_AB 0.0;
	distance_AC 0.0;
	distance_BN 0.0;
};

object underground_line {
	phases CB;
	from node5798157977;
	name 57981;
	longitude 21.2067391229;
	to node5791957981;
	length 199.985;
	latitude 1025.87236381;
	configuration 57981-LINECONFIG;
};

object underground_line {
	phases B;
	from node5791957981;
	name 58183;
	longitude 24.2561260003;
	to node5814258183;
	length 186.29;
	latitude 1011.70572362;
	configuration 58119-LINECONFIG;
};

object underground_line {
	phases B;
	from node5814258183;
	name 58142;
	longitude 21.939384873;
	to nodeT6247420298958142;
	length 207.458;
	latitude 995.453041691;
	configuration 58119-LINECONFIG;
};

object underground_line {
	phases B;
	from node5813658181;
	name 58149;
	longitude 185.888540065;
	to node5811958149;
	length 179.452;
	latitude 997.184634262;
	configuration 58119-LINECONFIG;
};

object line_configuration {
	name 58119-LINECONFIG;
	spacing 58261-LINESPACING;
	conductor_B 58261-LINECONFIGunderground_line_conductor8003;
};

object underground_line {
	phases B;
	from node5811958149;
	name 58119;
	longitude 188.13816491;
	to nodeT6246302293858119;
	length 131.437;
	latitude 986.916608932;
	configuration 58119-LINECONFIG;
};

object overhead_line {
	phases ACB;
	from node2028720286;
	name 20248;
	longitude 226.897791552;
	to node2014520248;
	length 153.517;
	latitude 1043.58324872;
	configuration 70559-LINECONFIG;
};

object overhead_line {
	phases ACB;
	from node2014520248;
	name 20145;
	longitude 235.106833166;
	to node2005020145;
	length 357.003;
	latitude 1015.80689851;
	configuration 70559-LINECONFIG;
};

object overhead_line {
	phases ACB;
	from node2005020145;
	name 20050;
	longitude 241.406839867;
	to node1966320050;
	length 287.2;
	latitude 993.377170686;
	configuration 70559-LINECONFIG;
};

object overhead_line {
	phases ACB;
	from node1966320050;
	name 19663;
	longitude 246.189847313;
	to node1965819663;
	length 211.226;
	latitude 976.921978131;
	configuration 70559-LINECONFIG;
};

object overhead_line {
	phases C;
	from node1965819663;
	name 19658;
	to nodeF758019658;
	longitude 248.244295805;
	length 25;
	latitude 976.728590065;
	configuration 19237-LINECONFIG;
};

object fuse {
	phases C;
	from nodeF758019658;
	name F7580;
	current_limit 9999.0 A;
	longitude 248.244295805;
	to node19652F7580;
	latitude 976.728590065;
};

object overhead_line {
	phases C;
	from node19652F7580;
	name 19652;
	longitude 267.060783342;
	to nodeT6246302155019652;
	length 228.973;
	latitude 974.957481296;
	configuration 19237-LINECONFIG;
};

object overhead_line {
	phases ACB;
	from node1965819663;
	name 19935;
	longitude 250.792275688;
	to node1959719935;
	length 194.654;
	latitude 961.813564972;
	configuration 70559-LINECONFIG;
};

object overhead_line {
	phases ACB;
	from node1959719935;
	name 19597;
	to node1959619597;
	longitude 255.792020354;
	length 222.044;
	latitude 944.50776554;
	configuration 70559-LINECONFIG;
};

object line_configuration {
	name 19596-LINECONFIG;
	spacing 18790-LINESPACING;
	conductor_B 16074_conductor_C;
};

object overhead_line {
	phases B;
	from node1959619597;
	name 19596;
	longitude 253.894428461;
	to nodeF758119596;
	length 25.0001;
	latitude 945.304225537;
	configuration 19596-LINECONFIG;
};

object fuse {
	phases B;
	from nodeF758119596;
	name F7581;
	current_limit 9999.0 A;
	longitude 253.894428461;
	to node19599F7581;
	latitude 945.304225537;
};

object overhead_line {
	phases B;
	from node19599F7581;
	name 19599;
	longitude 217.961173183;
	to node1991519599;
	length 473.406;
	latitude 960.385760572;
	configuration 19596-LINECONFIG;
};

object overhead_line {
	phases B;
	from node1991519599;
	name 19915;
	longitude 211.723133145;
	to node1957419915;
	length 82.1566;
	latitude 957.773182308;
	configuration 16194-LINECONFIG;
};

object overhead_line {
	phases B;
	from node1957419915;
	name 19574;
	longitude 200.124149997;
	to nodeT6246301896119574;
	length 406.315;
	latitude 926.888086257;
	configuration 16194-LINECONFIG;
};

object overhead_line {
	phases B;
	from node1991519599;
	name 19930;
	longitude 204.489232632;
	to nodeT6246302086819930;
	length 163.187;
	latitude 960.385760572;
	configuration 16194-LINECONFIG;
};

object overhead_line {
	phases ACB;
	from node1959619597;
	name 19852;
	longitude 276.43593505;
	to node1981519852;
	length 273.49;
	latitude 935.53590307;
	configuration 70559-LINECONFIG;
};

object overhead_line {
	phases ACB;
	from node1981519852;
	name 19815;
	to node1976519815;
	longitude 301.377926962;
	length 335.444;
	latitude 923.728669519;
	configuration 70559-LINECONFIG;
};

object overhead_line {
	phases ACB;
	from node1976519815;
	name 19765;
	longitude 331.242162363;
	to node1976419765;
	length 386.822;
	latitude 912.630275033;
	configuration 70559-LINECONFIG;
};

object overhead_line {
	phases C;
	from node1976419765;
	name 19764;
	longitude 331.332411591;
	to nodeF758419764;
	length 25.0001;
	latitude 914.653601135;
	configuration 19237-LINECONFIG;
};

object fuse {
	phases C;
	from nodeF758419764;
	name F7584;
	current_limit 9999.0 A;
	longitude 331.332411591;
	to node19776F7584;
	latitude 914.653601135;
};

object overhead_line {
	phases C;
	from node19776F7584;
	name 19776;
	longitude 332.547553865;
	to nodeT6246301915019776;
	length 336.596;
	latitude 941.895187276;
	configuration 19237-LINECONFIG;
};

object overhead_line {
	phases ACB;
	from node1976419765;
	name 19748;
	to node1973119748;
	longitude 341.675070684;
	length 137.975;
	latitude 908.144321561;
	configuration 70559-LINECONFIG;
};

object overhead_line {
	phases ACB;
	from node1973119748;
	name 19731;
	longitude 354.06868137;
	to node1958919731;
	length 155.789;
	latitude 904.772272871;
	configuration 70559-LINECONFIG;
};

object overhead_line {
	phases ACB;
	from node1958919731;
	name 19589;
	longitude 367.313560285;
	to node1953819589;
	length 172.639;
	latitude 899.607888801;
	configuration 70559-LINECONFIG;
};

object overhead_line {
	phases ACB;
	from node1953819589;
	name 19538;
	longitude 407.999822235;
	to node1918619538;
	length 561.815;
	latitude 877.758068044;
	configuration 70559-LINECONFIG;
};

object overhead_line {
	phases ACB;
	from node1918619538;
	name 19186;
	longitude 419.906290654;
	to node1950119186;
	length 169.689;
	latitude 870.515108364;
	configuration 70559-LINECONFIG;
};

object overhead_line {
	phases ACB;
	from node1950119186;
	name 19501;
	longitude 442.201336394;
	to node1950319501;
	length 293.041;
	latitude 861.300220299;
	configuration 70559-LINECONFIG;
};

object overhead_line {
	phases C;
	from node1950319501;
	name 19503;
	longitude 443.498872461;
	to nodeF504719503;
	length 27.5663;
	latitude 863.13482598;
	configuration 19237-LINECONFIG;
};

object fuse {
	phases C;
	from nodeF504719503;
	name F5047;
	current_limit 9999.0 A;
	longitude 443.498872461;
	to node19502F5047;
	latitude 863.13482598;
};

object overhead_line {
	phases C;
	from node19502F5047;
	name 19502;
	to nodeT6246307535719502;
	longitude 454.068608307;
	length 224.554;
	latitude 878.079453569;
	configuration 19237-LINECONFIG;
};

object overhead_line {
	phases ACB;
	from node1950319501;
	name 19345;
	longitude 474.26876951;
	to node1856919345;
	length 421.542;
	latitude 848.034803531;
	configuration 70559-LINECONFIG;
};

object overhead_line {
	phases A;
	from node1856919345;
	name 18569;
	longitude 473.53283849;
	to nodeF758818569;
	length 25.0003;
	latitude 846.142649273;
	configuration 18790-LINECONFIG;
};

object fuse {
	phases A;
	from nodeF758818569;
	name F7588;
	current_limit 9999.0 A;
	longitude 473.53283849;
	to node19396F7588;
	latitude 846.142649273;
};

object overhead_line {
	phases A;
	from node19396F7588;
	name 19396;
	longitude 465.796588741;
	to nodeT6246307233019396;
	length 262.794;
	latitude 826.253171958;
	configuration 18790-LINECONFIG;
};

object overhead_line {
	phases ACB;
	from node1856919345;
	name 19384;
	longitude 512.708475219;
	to node7092419384;
	length 546.446;
	latitude 824.865892414;
	configuration 70559-LINECONFIG;
};

object overhead_line {
	phases ACB;
	from node7092419384;
	name 70924;
	longitude 522.433175783;
	to node7092570924;
	length 131.068;
	latitude 820.210220024;
	configuration 70559-LINECONFIG;
};

object overhead_line {
	phases ACB;
	from node7092570924;
	name 70925;
	longitude 538.942949319;
	to nodeSW1250-Bx170925;
	length 222.516;
	latitude 812.306219473;
	configuration 70559-LINECONFIG;
};

object switch {
	status CLOSED;
	phases ACB;
	from nodeSW1250-Bx170925;
	name SW1250-Bx1;
	longitude 538.942949319;
	to nodeSW1250-Ax1SW1250-Bx1;
	latitude 812.306219473;
};

object switch {
	status CLOSED;
	phases ACB;
	from nodeSW1250-Ax1SW1250-Bx1;
	name SW1250-Ax1;
	longitude 538.942949319;
	to node19281SW1250-Ax1;
	latitude 812.306219473;
};

object overhead_line {
	phases ACB;
	from node19281SW1250-Ax1;
	name 19281;
	longitude 540.797862923;
	to node1908919281;
	length 25.0002;
	latitude 811.418202744;
	configuration 70559-LINECONFIG;
};

object overhead_line {
	phases ACB;
	from node1908919281;
	name 19089;
	longitude 557.097298477;
	to node1908319089;
	length 226.378;
	latitude 802.446305682;
	configuration 70559-LINECONFIG;
};

object overhead_line {
	phases A;
	from node1908319089;
	name 19083;
	to nodeF759019083;
	longitude 555.883869385;
	length 24.9998;
	latitude 800.808089414;
	configuration 18329-LINECONFIG;
};

object fuse {
	phases A;
	from nodeF759019083;
	name F7590;
	current_limit 9999.0 A;
	longitude 555.883869385;
	to node19043F7590;
	latitude 800.808089414;
};

object overhead_line {
	phases A;
	from node19043F7590;
	name 19043;
	longitude 539.059002041;
	to nodeT6246312984519043;
	length 346.642;
	latitude 778.092620701;
	configuration 18329-LINECONFIG;
};

object overhead_line {
	phases ACB;
	from node1908319089;
	name 19165;
	longitude 572.524771614;
	to node1900919165;
	length 222.764;
	latitude 792.623821511;
	configuration 70559-LINECONFIG;
};

object overhead_line {
	phases ACB;
	from node1900919165;
	name 19009;
	longitude 606.872802832;
	to node1875419009;
	length 489.892;
	latitude 771.672583802;
	configuration 70559-LINECONFIG;
};

object overhead_line {
	phases ACB;
	from node1875419009;
	name 18754;
	longitude 647.938780685;
	to node1875318754;
	length 558.193;
	latitude 751.156736272;
	configuration 70559-LINECONFIG;
};

object overhead_line {
	phases ACB;
	from node1875318754;
	name 18753;
	longitude 654.238787378;
	to node1852518753;
	length 76.3128;
	latitude 751.156736272;
	configuration 70559-LINECONFIG;
};

object overhead_line {
	phases ACB;
	from node1852518753;
	name 18525;
	to node1863018525;
	longitude 654.011745902;
	length 361.26;
	latitude 721.891809204;
	configuration 70559-LINECONFIG;
};

object overhead_line {
	phases ACB;
	from node1863018525;
	name 18630;
	longitude 654.234101331;
	to node1862818630;
	length 303.262;
	latitude 697.325507094;
	configuration 70559-LINECONFIG;
};

object overhead_line {
	phases ACB;
	from node1862818630;
	name 17886;
	longitude 653.578347057;
	to node1781517886;
	length 240.007;
	latitude 677.893175645;
	configuration 70559-LINECONFIG;
};

object overhead_line {
	phases ACB;
	from node1781517886;
	name 17815;
	longitude 652.706354409;
	to node1822517815;
	length 258.716;
	latitude 656.952024676;
	configuration 70559-LINECONFIG;
};

object overhead_line {
	phases ACB;
	from node1822517815;
	name 18225;
	longitude 652.272940448;
	to node1822218225;
	length 311.169;
	latitude 631.747732818;
	configuration 70559-LINECONFIG;
};

object overhead_line {
	phases A;
	from node1822218225;
	name 18222;
	longitude 654.308186216;
	to nodeF759318222;
	length 25;
	latitude 631.41159299;
	configuration 18790-LINECONFIG;
};

object fuse {
	phases A;
	from nodeF759318222;
	name F7593;
	current_limit 9999.0 A;
	longitude 654.308186216;
	to node18203F7593;
	latitude 631.41159299;
};

object overhead_line {
	phases A;
	from node18203F7593;
	name 18203;
	to nodeT6246312001018203;
	longitude 679.433528522;
	length 308.628;
	latitude 627.261779345;
	configuration 18790-LINECONFIG;
};

object overhead_line {
	phases ACB;
	from node1822218225;
	name 18098;
	longitude 646.56116864;
	to node1775618098;
	length 393.013;
	latitude 600.40691992;
	configuration 70559-LINECONFIG;
};

object overhead_line {
	phases ACB;
	from node1775618098;
	name 17756;
	longitude 641.0351356;
	to node1753517756;
	length 370.349;
	latitude 570.898982083;
	configuration 70559-LINECONFIG;
};

object overhead_line {
	phases ACB;
	from node1753517756;
	name 17535;
	longitude 634.224324632;
	to node1742217535;
	length 436.493;
	latitude 536.175974456;
	configuration 70559-LINECONFIG;
};

object overhead_line {
	phases ACB;
	from node1742217535;
	name 17422;
	longitude 643.55314495;
	to node1742117422;
	length 185.436;
	latitude 524.265193857;
	configuration 15051-LINECONFIG;
};

object overhead_line {
	phases C;
	from node1742117422;
	name 17421;
	longitude 645.281565516;
	to node6778217421;
	length 23.1075;
	latitude 525.057327425;
	configuration 19237-LINECONFIG;
};

object overhead_line {
	phases C;
	from node6778217421;
	name 67782;
	to nodeR120367782;
	longitude 646.801371362;
	length 20;
	latitude 524.424168394;
	configuration 19237-LINECONFIG;
};

object fuse {
	phases C;
	from nodeR120367782;
	name R1203;
	current_limit 9999.0 A;
	longitude 646.801356247;
	to node67783R1203;
	latitude 524.424168394;
};

object overhead_line {
	phases C;
	from node67783R1203;
	name 67783;
	longitude 647.181308967;
	to node1710567783;
	length 10;
	latitude 524.265891031;
	configuration 19237-LINECONFIG;
};

object overhead_line {
	phases C;
	from node1710567783;
	name 17105;
	longitude 654.346042424;
	to node1710617105;
	length 86.7997;
	latitude 524.147406678;
	configuration 19237-LINECONFIG;
};

object overhead_line {
	phases C;
	from node1710617105;
	name 17106;
	longitude 659.331396385;
	to node1710417106;
	length 60.3968;
	latitude 524.064987327;
	configuration 19237-LINECONFIG;
};

object overhead_line {
	phases C;
	from node1710417106;
	name 17104;
	longitude 675.997174973;
	to node1709317104;
	length 207.359;
	latitude 527.902809953;
	configuration 19237-LINECONFIG;
};

object overhead_line {
	phases C;
	from node1709317104;
	name 17093;
	longitude 696.764952461;
	to node1724017093;
	length 260.268;
	latitude 522.495380523;
	configuration 19237-LINECONFIG;
};

object overhead_line {
	phases C;
	from node1724017093;
	name 17240;
	longitude 715.231493096;
	to node1719417240;
	length 278.181;
	latitude 509.098356806;
	configuration 19237-LINECONFIG;
};

object overhead_line {
	phases C;
	from node1719417240;
	name 17194;
	to node1705417194;
	longitude 728.558962318;
	length 175.369;
	latitude 503.549110146;
	configuration 19237-LINECONFIG;
};

object overhead_line {
	phases C;
	from node1705417194;
	name 17054;
	longitude 742.613942797;
	to node1717617054;
	length 184.174;
	latitude 497.858159915;
	configuration 19237-LINECONFIG;
};

object overhead_line {
	phases C;
	from node1717617054;
	name 17176;
	longitude 756.668973667;
	to node1721217176;
	length 196.629;
	latitude 505.827556015;
	configuration 19237-LINECONFIG;
};

object overhead_line {
	phases C;
	from node1721217176;
	name 17212;
	longitude 762.901859042;
	to node1708217212;
	length 201.087;
	latitude 520.92580831;
	configuration 19237-LINECONFIG;
};

object overhead_line {
	phases C;
	from node1708217212;
	name 17082;
	longitude 744.342428879;
	to nodeT6246223563117082;
	length 422.629;
	latitude 549.917360615;
	configuration 19237-LINECONFIG;
};

object overhead_line {
	phases C;
	from node1717617054;
	name 17268;
	longitude 754.82175425;
	to node1725317268;
	length 194.763;
	latitude 487.590139527;
	configuration 19237-LINECONFIG;
};

object overhead_line {
	phases C;
	from node1725317268;
	name 17253;
	longitude 756.271632188;
	to node1725217253;
	length 146.804;
	latitude 475.782905977;
	configuration 19237-LINECONFIG;
};

object overhead_line {
	phases C;
	from node1725217253;
	name 17252;
	longitude 773.943580553;
	to nodeT6246223047317252;
	length 214.091;
	latitude 476.066421836;
	configuration 19237-LINECONFIG;
};

object overhead_line {
	phases C;
	from node1725217253;
	name 17146;
	longitude 756.560610096;
	to node1701317146;
	length 61.5997;
	latitude 470.800760218;
	configuration 19237-LINECONFIG;
};

object overhead_line {
	phases C;
	from node1701317146;
	name 17013;
	longitude 768.293745185;
	to node1647717013;
	length 163.463;
	latitude 464.25917346;
	configuration 19237-LINECONFIG;
};

object overhead_line {
	phases C;
	from node1647717013;
	name 16477;
	to node1673316477;
	longitude 769.980938623;
	length 148.042;
	latitude 452.381056004;
	configuration 19237-LINECONFIG;
};

object overhead_line {
	phases C;
	from node1673316477;
	name 16733;
	longitude 771.487568107;
	to node1688216733;
	length 141.308;
	latitude 441.029519533;
	configuration 19237-LINECONFIG;
};

object overhead_line {
	phases C;
	from node1688216733;
	name 16882;
	longitude 767.287595552;
	to node1686516882;
	length 221.91;
	latitude 423.531340693;
	configuration 19237-LINECONFIG;
};

object overhead_line {
	phases C;
	from node1686516882;
	name 16865;
	longitude 754.682447664;
	to nodeT6246222753516865;
	length 156.676;
	latitude 420.685858165;
	configuration 19237-LINECONFIG;
};

object overhead_line {
	phases C;
	from node1686516882;
	name 16797;
	longitude 749.89944021;
	to node1678116797;
	length 315.855;
	latitude 404.463520458;
	configuration 19237-LINECONFIG;
};

object overhead_line {
	phases C;
	from node1678116797;
	name 16781;
	longitude 750.941667361;
	to node1662216781;
	length 26.8967;
	latitude 402.539543538;
	configuration 19237-LINECONFIG;
};

object overhead_line {
	phases C;
	from node1662216781;
	name 16622;
	to nodeT6246222458016622;
	longitude 763.453940837;
	length 323.346;
	latitude 379.401026062;
	configuration 19237-LINECONFIG;
};

object overhead_line {
	phases C;
	from node1701317146;
	name 17006;
	longitude 742.650085823;
	to node1609217006;
	length 191.621;
	latitude 463.408601175;
	configuration 19237-LINECONFIG;
};

object overhead_line {
	phases C;
	from node1609217006;
	name 16092;
	longitude 727.145207255;
	to nodeT6246222974116092;
	length 220.748;
	latitude 454.011400675;
	configuration 19237-LINECONFIG;
};

object overhead_line {
	phases C;
	from node1717617054;
	name 17290;
	longitude 731.948853469;
	to nodeT6246223167917290;
	length 152.018;
	latitude 491.367204519;
	configuration 19237-LINECONFIG;
};

object overhead_line {
	phases C;
	from node1724017093;
	name 17380;
	longitude 698.50376296;
	to nodeT6246223381917380;
	length 93.7711;
	latitude 515.093075441;
	configuration 19237-LINECONFIG;
};

object overhead_line {
	phases C;
	from node1709317104;
	name 17450;
	longitude 678.458357181;
	to nodeT6246217408117450;
	length 179.863;
	latitude 542.271990406;
	configuration 19237-LINECONFIG;
};

object overhead_line {
	phases C;
	from node1710617105;
	name 17366;
	to node1723117366;
	longitude 655.02885484;
	length 145.002;
	latitude 512.419917522;
	configuration 19237-LINECONFIG;
};

object overhead_line {
	phases C;
	from node1723117366;
	name 17231;
	longitude 657.48422736;
	to node1727917231;
	length 54.57;
	latitude 508.713509041;
	configuration 16074-LINECONFIG;
};

object overhead_line {
	phases C;
	from node1727917231;
	name 17279;
	longitude 671.755945051;
	to node1714317279;
	length 294.564;
	latitude 489.392581413;
	configuration 16074-LINECONFIG;
};

object overhead_line {
	phases C;
	from node1714317279;
	name 17143;
	longitude 689.175058533;
	to node1689417143;
	length 321.163;
	latitude 469.778006712;
	configuration 16074-LINECONFIG;
};

object overhead_line {
	phases C;
	from node1689417143;
	name 16894;
	longitude 696.883620296;
	to node1607416894;
	length 557.377;
	latitude 425.262933264;
	configuration 16074-LINECONFIG;
};

object line_configuration {
	name 16074-LINECONFIG;
	spacing 18790-LINESPACING;
	conductor_C 16074_conductor_C;
};

object overhead_line_conductor {
	diameter 0.23;
	name 16074_conductor_C;
	geometric_mean_radius 0.00479;
	resistance 2.44;
};

object overhead_line {
	phases C;
	from node1607416894;
	name 16074;
	longitude 701.991693256;
	to node1676616074;
	length 378.344;
	latitude 395.025884051;
	configuration 16074-LINECONFIG;
};

object overhead_line {
	phases C;
	from node1676616074;
	name 16766;
	longitude 687.271092607;
	to node1677416766;
	length 197.805;
	latitude 401.962360839;
	configuration 16074-LINECONFIG;
};

object overhead_line {
	phases C;
	from node1677416766;
	name 16774;
	longitude 673.94251486;
	to nodeT6246216602416774;
	length 161.838;
	latitude 402.868751244;
	configuration 19237-LINECONFIG;
};

object overhead_line {
	phases C;
	from node1676616074;
	name 16678;
	longitude 703.64279406;
	to node1639016678;
	length 87.8082;
	latitude 388.099494003;
	configuration 16074-LINECONFIG;
};

object overhead_line {
	phases C;
	from node1639016678;
	name 16390;
	longitude 722.26925989;
	to node1490116390;
	length 455.006;
	latitude 356.090347131;
	configuration 16074-LINECONFIG;
};

object overhead_line {
	phases C;
	from node1490116390;
	name 14901;
	longitude 733.445163573;
	to node1563214901;
	length 271.745;
	latitude 337.002323767;
	configuration 16074-LINECONFIG;
};

object overhead_line {
	phases C;
	from node1563214901;
	name 15632;
	longitude 725.138082804;
	to node1602115632;
	length 185.953;
	latitude 324.334327417;
	configuration 19237-LINECONFIG;
};

object overhead_line {
	phases C;
	from node1602115632;
	name 16021;
	longitude 725.850120026;
	to node1514116021;
	length 335.111;
	latitude 297.195947191;
	configuration 19237-LINECONFIG;
};

object overhead_line {
	phases C;
	from node1514116021;
	name 15141;
	longitude 703.802789798;
	to node1588815141;
	length 270.724;
	latitude 293.60112051;
	configuration 19237-LINECONFIG;
};

object overhead_line {
	phases C;
	from node1588815141;
	name 15888;
	to node1582015888;
	longitude 691.28017679;
	length 301.445;
	latitude 272.498003541;
	configuration 19237-LINECONFIG;
};

object overhead_line {
	phases C;
	from node1582015888;
	name 15820;
	longitude 665.76551975;
	to node1567415820;
	length 337.061;
	latitude 261.60209991;
	configuration 19237-LINECONFIG;
};

object overhead_line {
	phases C;
	from node1567415820;
	name 15674;
	longitude 652.448369908;
	to node1451415674;
	length 317.851;
	latitude 239.415456976;
	configuration 19237-LINECONFIG;
};

object overhead_line {
	phases C;
	from node1563214901;
	name 16100;
	longitude 752.247109246;
	to nodeT6246222051616100;
	length 473.935;
	latitude 303.332453405;
	configuration 16074-LINECONFIG;
};

object overhead_line {
	phases C;
	from node1563214901;
	name 16222;
	longitude 731.128457713;
	to nodeF888516222;
	length 28.1392;
	latitude 336.834295856;
	configuration 19237-LINECONFIG;
};

object fuse {
	phases C;
	from nodeF888516222;
	name F8885;
	current_limit 9999.0 A;
	longitude 731.128457713;
	to node16223F8885;
	latitude 336.834295856;
};

object overhead_line {
	phases C;
	from node16223F8885;
	name 16223;
	longitude 696.584373391;
	to node1621316223;
	length 419.578;
	latitude 334.328973044;
	configuration 19237-LINECONFIG;
};

object overhead_line {
	phases C;
	from node1621316223;
	name 16213;
	longitude 683.004069278;
	to nodeT6246222199816213;
	length 164.993;
	latitude 333.296093265;
	configuration 19237-LINECONFIG;
};

object overhead_line {
	phases C;
	from nodeT6246222199816213;
	name 16204;
	longitude 664.676835238;
	to nodeT6246216108916204;
	length 222.922;
	latitude 331.655671737;
	configuration 19237-LINECONFIG;
};

object overhead_line {
	phases ACB;
	from node1742117422;
	name 17095;
	longitude 644.946870938;
	to nodeSW1421-Bx117095;
	length 26.7337;
	latitude 522.58596813;
	configuration 15051-LINECONFIG;
};

object switch {
	status CLOSED;
	phases ACB;
	from nodeSW1421-Bx117095;
	name SW1421-Bx1;
	longitude 644.946870938;
	to nodeSW1421-Ax1SW1421-Bx1;
	latitude 522.58596813;
};

object switch {
	status CLOSED;
	phases ACB;
	from nodeSW1421-Ax1SW1421-Bx1;
	name SW1421-Ax1;
	longitude 644.946870938;
	to node17091SW1421-Ax1;
	latitude 522.58596813;
};

object overhead_line {
	phases ACB;
	from node17091SW1421-Ax1;
	name 17091;
	longitude 645.267119392;
	to node5776917091;
	length 10;
	latitude 522.102740226;
	configuration 15051-LINECONFIG;
};

object underground_line {
	phases ACB;
	from node5776917091;
	name 57769;
	longitude 646.691687638;
	to nodeF564057769;
	length 29.1536;
	latitude 520.199149356;
	configuration 58136-LINECONFIG;
};

object fuse {
	phases ACB;
	from nodeF564057769;
	name F5640;
	current_limit 9999.0 A;
	longitude 646.691687638;
	to node57768F5640;
	latitude 520.199149356;
};

object overhead_line {
	phases ACB;
	from node1742217535;
	name 16557;
	longitude 630.953116432;
	to node1721016557;
	length 231.048;
	latitude 517.736017697;
	configuration 70559-LINECONFIG;
};

object overhead_line {
	phases ACB;
	from node1721016557;
	name 17210;
	longitude 627.950161729;
	to node1720517210;
	length 158.967;
	latitude 505.199727129;
	configuration 70559-LINECONFIG;
};

object overhead_line {
	phases ACB;
	from node1720517210;
	name 17205;
	longitude 629.783509438;
	to node1718817205;
	length 24.3991;
	latitude 504.381002214;
	configuration 70559-LINECONFIG;
};

object overhead_line {
	phases ACB;
	from node1718817205;
	name 17188;
	longitude 629.447545089;
	to nodeSW1375-Ax117188;
	length 19.975;
	latitude 502.79676967;
	configuration 70559-LINECONFIG;
};

object overhead_line {
	phases ACB;
	from node1720517210;
	name 68064;
	to nodeR120268064;
	longitude 627.695921025;
	length 15.1854;
	latitude 503.995121002;
	configuration 70559-LINECONFIG;
};

object fuse {
	phases ACB;
	from nodeR120268064;
	name R1202;
	current_limit 9999.0 A;
	longitude 627.695921025;
	to node68065R1202;
	latitude 503.995121002;
};

object overhead_line {
	phases ACB;
	from node68065R1202;
	name 68065;
	longitude 627.446789628;
	to node1718968065;
	length 14.881;
	latitude 502.814653801;
	configuration 70559-LINECONFIG;
};

object overhead_line {
	phases ACB;
	from node1718968065;
	name 17189;
	longitude 629.447545089;
	to nodeSW1375-Bx117189;
	length 24.2364;
	latitude 502.79676967;
	configuration 70559-LINECONFIG;
};

object overhead_line {
	phases ACB;
	from node1718968065;
	name 70558;
	longitude 620.718039897;
	to nodeCAP13470558;
	length 401.908;
	latitude 470.932535263;
	configuration 70559-LINECONFIG;
};

object capacitor {
	control MANUAL;
	phases ABCN;
	capacitor_A 48000.0;
	control_level BANK;
	name CAP134;
	parent nodeCAP13470558;
	capacitor_B 48000.0;
	phases_connected ABCN;
	longitude 620.718039897;
	switchC CLOSED;
	nominal_voltage 7200.0;
	capacitor_C 48000.0;
	latitude 470.932535263;
	switchB CLOSED;
	switchA CLOSED;
	pt_phase A;
};

object line_configuration {
	name 70559-LINECONFIG;
	spacing 70559-LINESPACING;
	conductor_A 18325_conductor_B;
	conductor_C 18325_conductor_B;
	conductor_B 18325_conductor_B;
};

object line_spacing {
	distance_AN 0.000000;
	name 70559-LINESPACING;
	distance_CN 0.000000;
	distance_BC 4.472136;
	distance_AB 4.472136;
	distance_AC 8.000000;
	distance_BN 0.000000;
};

object overhead_line {
	phases ACB;
	from nodeCAP13470558;
	name 70559;
	longitude 620.215791436;
	to node1648970559;
	length 30;
	latitude 468.552727758;
	configuration 70559-LINECONFIG;
};

object overhead_line {
	phases ACB;
	from node1648970559;
	name 16489;
	to node1649016489;
	longitude 610.964442056;
	length 212.564;
	latitude 453.9202494;
	configuration 70559-LINECONFIG;
};

object overhead_line {
	phases C;
	from node1649016489;
	name 16490;
	longitude 609.044543568;
	to nodeF751716490;
	length 25.0001;
	latitude 454.663452495;
	configuration 19237-LINECONFIG;
};

object fuse {
	phases C;
	from nodeF751716490;
	name F7517;
	current_limit 9999.0 A;
	longitude 609.044543568;
	to node17035F7517;
	latitude 454.663452495;
};

object overhead_line {
	phases C;
	from node17035F7517;
	name 17035;
	longitude 598.983661998;
	to node1630917035;
	length 131.009;
	latitude 458.558096957;
	configuration 19237-LINECONFIG;
};

object overhead_line {
	phases C;
	from node1630917035;
	name 16309;
	longitude 580.713189584;
	to node1702316309;
	length 240.841;
	latitude 466.254063937;
	configuration 19237-LINECONFIG;
};

object overhead_line {
	phases C;
	from node1702316309;
	name 17023;
	longitude 559.032172151;
	to node1714717023;
	length 269.281;
	latitude 471.074169571;
	configuration 19237-LINECONFIG;
};

object overhead_line {
	phases C;
	from node1714717023;
	name 17147;
	longitude 546.736640932;
	to node1673817147;
	length 152.053;
	latitude 473.555126062;
	configuration 19237-LINECONFIG;
};

object overhead_line {
	phases C;
	from node1673817147;
	name 16738;
	longitude 548.65086073;
	to nodeT6246216887016738;
	length 384.201;
	latitude 442.487702751;
	configuration 19237-LINECONFIG;
};

object underground_line {
	phases C;
	from node1673817147;
	name 57761;
	longitude 544.67591919;
	to nodeF751557761;
	length 24.9998;
	latitude 473.443524495;
	configuration 57821-LINECONFIG;
};

object fuse {
	phases C;
	from nodeF751557761;
	name F7515;
	current_limit 9999.0 A;
	longitude 544.67591919;
	to node57781F7515;
	latitude 473.443524495;
};

object underground_line {
	phases C;
	from node57781F7515;
	name 57781;
	longitude 514.473124479;
	to nodeT6246211006057781;
	length 373.741;
	latitude 473.585485112;
	configuration 57821-LINECONFIG;
};

object overhead_line {
	phases ACB;
	from node1649016489;
	name 16792;
	longitude 576.203635629;
	to node1628616792;
	length 747.809;
	latitude 403.855944117;
	configuration 70559-LINECONFIG;
};

object overhead_line {
	phases B;
	from node1628616792;
	name 16286;
	longitude 597.729847245;
	to node5776016286;
	length 264.012;
	latitude 400.504162797;
	configuration 16194-LINECONFIG;
};

object underground_line {
	phases B;
	from node5776016286;
	name 57760;
	to nodeF751657760;
	longitude 599.398896118;
	length 25.0002;
	latitude 401.695497999;
	configuration 58119-LINECONFIG;
};

object fuse {
	phases B;
	from nodeF751657760;
	name F7516;
	current_limit 9999.0 A;
	longitude 599.398896118;
	to node57765F7516;
	latitude 401.695497999;
};

object underground_line {
	phases B;
	from node57765F7516;
	name 57765;
	longitude 606.749000503;
	to nodeT6246216645457765;
	length 110.041;
	latitude 406.934360559;
	configuration 58119-LINECONFIG;
};

object overhead_line {
	phases ACB;
	from node1628616792;
	name 16676;
	longitude 561.761658248;
	to node1640116676;
	length 265.618;
	latitude 387.664064292;
	configuration 70559-LINECONFIG;
};

object overhead_line {
	phases ACB;
	from node1640116676;
	name 16401;
	longitude 533.780664346;
	to node1624616401;
	length 507.61;
	latitude 357.052328178;
	configuration 70559-LINECONFIG;
};

object overhead_line {
	phases ACB;
	from node1624616401;
	name 16246;
	longitude 518.471859043;
	to node1623716246;
	length 269.729;
	latitude 341.18449401;
	configuration 70559-LINECONFIG;
};

object overhead_line {
	phases B;
	from node1623716246;
	name 16237;
	to nodeF751416237;
	longitude 516.667086143;
	length 25;
	latitude 340.202033022;
	configuration 16194-LINECONFIG;
};

object fuse {
	phases B;
	from nodeF751416237;
	name F7514;
	current_limit 9999.0 A;
	longitude 516.667086143;
	to node16229F7514;
	latitude 340.202033022;
};

object overhead_line {
	phases B;
	from node16229F7514;
	name 16229;
	longitude 507.868670872;
	to node1620916229;
	length 121.877;
	latitude 335.412484184;
	configuration 16194-LINECONFIG;
};

object overhead_line {
	phases B;
	from node1620916229;
	name 16209;
	longitude 491.842688808;
	to node1619416209;
	length 197.367;
	latitude 332.526531158;
	configuration 16194-LINECONFIG;
};

object line_configuration {
	name 16194-LINECONFIG;
	spacing 18790-LINESPACING;
	conductor_B 18790_conductor_A;
};

object overhead_line {
	phases B;
	from node1619416209;
	name 16194;
	longitude 469.955298891;
	to node1563116194;
	length 268.71;
	latitude 328.982335838;
	configuration 16194-LINECONFIG;
};

object overhead_line {
	phases B;
	from node1563116194;
	name 15631;
	longitude 452.448264093;
	to nodeT6246210133815631;
	length 220.523;
	latitude 324.082238566;
	configuration 16194-LINECONFIG;
};

object overhead_line {
	phases B;
	from node1563116194;
	name 16109;
	to nodeT6246210022416109;
	longitude 476.048867608;
	length 304.822;
	latitude 305.023540887;
	configuration 16194-LINECONFIG;
};

object overhead_line {
	phases B;
	from node1619416209;
	name 72473;
	longitude 480.687076213;
	to node7247472473;
	length 255;
	latitude 350.045175195;
	configuration 16194-LINECONFIG;
};

object overhead_line {
	phases B;
	from node7247472473;
	name 72474;
	longitude 469.531463618;
	to node7247572474;
	length 255;
	latitude 367.563804325;
	configuration 16194-LINECONFIG;
};

object overhead_line {
	phases B;
	from node7247572474;
	name 72475;
	longitude 444.892613574;
	to node7247672475;
	length 360;
	latitude 383.871913747;
	configuration 16194-LINECONFIG;
};

object overhead_line {
	phases ACB;
	from node1623716246;
	name 16149;
	longitude 510.123495719;
	to node1594716149;
	length 362.275;
	latitude 313.003058317;
	configuration 70559-LINECONFIG;
};

object overhead_line {
	phases ACB;
	from node1594716149;
	name 15947;
	longitude 500.330388959;
	to node1580915947;
	length 403.339;
	latitude 281.773634415;
	configuration 70559-LINECONFIG;
};

object overhead_line {
	phases ACB;
	from node1580915947;
	name 15809;
	longitude 494.014928384;
	to node1497315809;
	length 292.192;
	latitude 258.928764012;
	configuration 70559-LINECONFIG;
};

object overhead_line {
	phases ACB;
	from node1497315809;
	name 14973;
	longitude 484.763578995;
	to node1555814973;
	length 375.845;
	latitude 229.866362391;
	configuration 70559-LINECONFIG;
};

object overhead_line {
	phases ACB;
	from node1555814973;
	name 15558;
	longitude 493.560875663;
	to node1518515558;
	length 306.614;
	latitude 206.575936005;
	configuration 70559-LINECONFIG;
};

object overhead_line {
	phases ACB;
	from node1518515558;
	name 15185;
	longitude 502.641930085;
	to node1504015185;
	length 317.537;
	latitude 182.445029015;
	configuration 70559-LINECONFIG;
};

object overhead_line {
	phases ACB;
	from node1504015185;
	name 15040;
	longitude 500.387170745;
	to node1530515040;
	length 286.057;
	latitude 159.377400387;
	configuration 70559-LINECONFIG;
};

object overhead_line {
	phases ACB;
	from node1530515040;
	name 15305;
	to node1502815305;
	longitude 497.002363705;
	length 470.042;
	latitude 121.444364428;
	configuration 70559-LINECONFIG;
};

object overhead_line {
	phases ACB;
	from node1502815305;
	name 15028;
	longitude 493.581514423;
	to node1460115028;
	length 436.471;
	latitude 86.2454417681;
	configuration 70559-LINECONFIG;
};

object overhead_line {
	phases ACB;
	from node1460115028;
	name 14601;
	longitude 490.877867088;
	to node1476314601;
	length 368.458;
	latitude 56.5147061728;
	configuration 70559-LINECONFIG;
};

object overhead_line {
	phases ACB;
	from node1476314601;
	name 14763;
	longitude 487.941963159;
	to node1466514763;
	length 341.358;
	latitude 29.0117504926;
	configuration 70559-LINECONFIG;
};

object overhead_line {
	phases ACB;
	from node1466514763;
	name 14665;
	longitude 484.93385381;
	to nodeSW6314665;
	length 359.974;
	latitude 0.0;
	configuration 70559-LINECONFIG;
};

object overhead_line {
	phases ACB;
	from node1530515040;
	name 68161;
	longitude 499.32204243;
	to nodeF555268161;
	length 13.0603;
	latitude 159.541621062;
	configuration 15051-LINECONFIG;
};

object fuse {
	phases ACB;
	from nodeF555268161;
	name F5552;
	current_limit 9999.0 A;
	longitude 499.32204243;
	to node15042F5552;
	latitude 159.541621062;
};

object overhead_line {
	phases ACB;
	from node15042F5552;
	name 15042;
	to node1504815042;
	longitude 490.662530653;
	length 106.95;
	latitude 161.232273437;
	configuration 15051-LINECONFIG;
};

object overhead_line {
	phases ACB;
	from node1504815042;
	name 15048;
	longitude 488.300732933;
	to nodeSW1039-Bx115048;
	length 29.3356;
	latitude 161.757994096;
	configuration 15051-LINECONFIG;
};

object switch {
	status CLOSED;
	phases ACB;
	from nodeSW1039-Bx115048;
	name SW1039-Bx1;
	longitude 488.300732933;
	to nodeSW1039-Ax1SW1039-Bx1;
	latitude 161.757994096;
};

object switch {
	status CLOSED;
	phases ACB;
	from nodeSW1039-Ax1SW1039-Bx1;
	name SW1039-Ax1;
	longitude 488.300732933;
	to node15051SW1039-Ax1;
	latitude 161.757994096;
};

object line_configuration {
	name 15051-LINECONFIG;
	spacing 70559-LINESPACING;
	conductor_B 18790_conductor_A;
	conductor_A 18790_conductor_A;
	conductor_C 18790_conductor_A;
};

object overhead_line {
	phases ACB;
	from node15051SW1039-Ax1;
	name 15051;
	longitude 487.086789887;
	to node5773115051;
	length 15.0633;
	latitude 162.022706115;
	configuration 15051-LINECONFIG;
};

object line_spacing {
	distance_AN 0.0;
	name 57731-LINESPACING;
	distance_CN 0.0;
	distance_BC 4.472136;
	distance_AB 4.472136;
	distance_AC 8.000000;
	distance_BN 0.0;
};

object underground_line {
	phases ACB;
	from node5773115051;
	name 57731;
	longitude 485.889741804;
	to nodeF559357731;
	length 28.9999;
	latitude 159.988165936;
	configuration 58136-LINECONFIG;
};

object fuse {
	phases ACB;
	from nodeF559357731;
	name F5593;
	current_limit 9999.0 A;
	longitude 485.889741804;
	to node57738F5593;
	latitude 159.988165936;
};

object overhead_line {
	phases A;
	from node1648970559;
	name 17127;
	longitude 622.243181787;
	to nodeF526917127;
	length 25.2353;
	latitude 469.023189025;
	configuration 18790-LINECONFIG;
};

object fuse {
	phases A;
	from nodeF526917127;
	name F5269;
	current_limit 9999.0 A;
	longitude 622.243181787;
	to node17134F5269;
	latitude 469.023189025;
};

object overhead_line {
	phases A;
	from node17134F5269;
	name 17134;
	longitude 637.278070028;
	to node1703817134;
	length 185.337;
	latitude 471.808818802;
	configuration 18790-LINECONFIG;
};

object overhead_line {
	phases A;
	from node1703817134;
	name 17038;
	longitude 639.137704946;
	to nodeT6246216924517038;
	length 210.084;
	latitude 454.887980874;
	configuration 18790-LINECONFIG;
};

object overhead_line {
	phases ACB;
	from node1721016557;
	name 17387;
	longitude 629.045663686;
	to node1738817387;
	length 32.2093;
	latitude 515.918084802;
	configuration 18177-LINECONFIG;
};

object overhead_line {
	phases ACB;
	from node1738817387;
	name 17388;
	longitude 627.719482266;
	to nodeSW1276-Bx117388;
	length 19.976;
	latitude 516.879966936;
	configuration 18177-LINECONFIG;
};

object overhead_line {
	phases ACB;
	from node1721016557;
	name 68062;
	longitude 629.765727652;
	to nodeR120168062;
	length 16.7208;
	latitude 518.426809475;
	configuration 18177-LINECONFIG;
};

object fuse {
	phases ACB;
	from nodeR120168062;
	name R1201;
	current_limit 9999.0 A;
	longitude 629.765727652;
	to node68063R1201;
	latitude 518.4268243;
};

object overhead_line {
	phases ACB;
	from node68063R1201;
	name 68063;
	longitude 628.839245854;
	to node1655268063;
	length 13.0467;
	latitude 518.965815884;
	configuration 18177-LINECONFIG;
};

object overhead_line {
	phases ACB;
	from node1655268063;
	name 16552;
	longitude 627.719482266;
	to nodeSW1276-Ax116552;
	length 29.1022;
	latitude 516.879966936;
	configuration 18177-LINECONFIG;
};

object overhead_line {
	phases ACB;
	from node1655268063;
	name 16564;
	longitude 614.731000649;
	to node1736116564;
	length 198.672;
	latitude 527.173718345;
	configuration 18177-LINECONFIG;
};

object overhead_line {
	phases ACB;
	from node1736116564;
	name 17361;
	longitude 614.854868477;
	to node1723017361;
	length 191.256;
	latitude 511.680521662;
	configuration 15051-LINECONFIG;
};

object overhead_line {
	phases B;
	from node1723017361;
	name 17230;
	to nodeT6246217237917230;
	longitude 614.880641731;
	length 40.0012;
	latitude 508.440114512;
	configuration 15051-LINECONFIG;
};

object overhead_line {
	phases ACB;
	from node1736116564;
	name 17443;
	longitude 590.403072312;
	to node1756317443;
	length 333.666;
	latitude 539.851811316;
	configuration 18177-LINECONFIG;
};

object overhead_line {
	phases ACB;
	from node1756317443;
	name 17563;
	longitude 559.702931853;
	to node1739117563;
	length 425.544;
	latitude 556.610777217;
	configuration 18177-LINECONFIG;
};

object overhead_line {
	phases ACB;
	from node1739117563;
	name 17391;
	longitude 530.416566618;
	to node1769917391;
	length 380.42;
	latitude 567.739585112;
	configuration 18177-LINECONFIG;
};

object overhead_line {
	phases ACB;
	from node1769917391;
	name 17699;
	to node1772017699;
	longitude 501.966000613;
	length 366.98;
	latitude 577.95700873;
	configuration 18177-LINECONFIG;
};

object overhead_line {
	phases ACB;
	from node1772017699;
	name 17720;
	longitude 471.601250085;
	to node1764317720;
	length 397.887;
	latitude 590.250268761;
	configuration 18177-LINECONFIG;
};

object overhead_line {
	phases ACB;
	from node1764317720;
	name 17643;
...